
    CNRS - NERC - Met OFFICE - MERCATOR-ocean - CMCC
                        NEMO team
             Ocean General Circulation Model
                 NEMO version 4.0  (2019) 

            ._      ._      ._      ._      ._    
        _.-._)`\_.-._)`\_.-._)`\_.-._)`\_.-._)`\_ 

            o         _,           _,             
             o      .' (        .-' /             
            o     _/..._'.    .'   /              
       (    o .-'`      ` '-./  _.'               
        )    ( o)           ;= <_         (       
       (      '-.,\\__ __.-;`\   '.        )      
        )  )       \) |`\ \)  '.   \      (   (   
       (  (           \_/       '-._\      )   )  
        )  ) jgs                     `    (   (   
      ^^^^^^^^^^^^^^^^^^^^^^^^^^^^^^^^^^^^^^^^^^^ 


AAAAAAAA

    
 usr_def_nam  : read the user defined namelist (namusr_def) in namelist_cfg
 ~~~~~~~~~~~ 
    Namelist namusr_def : source case
       GYRE used as Benchmark (=T)                      ln_bench  =  F
       inverse resolution & implied domain size         nn_GYRE   =            2
          jpiglo = 30*nn_GYRE+2                            jpiglo =           62
          jpjglo = 20*nn_GYRE+2                            jpjglo =           42
       number of model levels                              jpkglo =           31
    
    Lateral b.c. of the global domain set to closed        jperio =            0
    Namelist nammpp
       jpni and jpnj will be calculated automatically
       avoid use of mpi_allgather at the north fold  ln_nnogather =  T
 mpp_init:
 ~~~~~~~~ 

    ==> you use the best mpi decomposition

   Number of mpi processes:     1
   Number of ocean subdomains =     1
   Number of suppressed land subdomains =     0


 MPI Message Passing MPI - domain lay out over processors

    defines mpp subdomains
       jpni =            1
       jpnj =            1

       sum ilci(i,1) =           62  jpiglo =           62
       sum ilcj(1,j) =           42  jpjglo =           42

           ****************
           *              *   
         1 *   62  x 42   *   
           *          0   *        
           *              *   
           ****************
                   1             

    resulting internal parameters : 
       nproc  =            0
       nowe   =           -1    noea  =            -1
       nono   =           -1    noso  =            -1
       nbondi =            2
       nbondj =            2
       npolj  =            0
     l_Iperio =  F
     l_Jperio =  F
       nlci   =           62
       nlcj   =           42
       nimpp  =            1
       njmpp  =            1
       nreci  =            2
       nrecj  =            2
       nn_hls =            1

 mpp_init_ioipsl :   iloc  =           62          42
 ~~~~~~~~~~~~~~~     iabsf =            1           1
                     ihals =            0           0
                     ihale =            0           0

 nemo_ctl: Control prints
 ~~~~~~~~
    Namelist namctl
       run control (for debugging)     ln_ctl     =  F
        finer control over o/p sn_cfctl%l_config  =  T
                               sn_cfctl%l_runstat =  F
                               sn_cfctl%l_trcstat =  F
                               sn_cfctl%l_oceout  =  F
                               sn_cfctl%l_layout  =  F
                               sn_cfctl%l_mppout  =  F
                               sn_cfctl%l_mpptop  =  F
                               sn_cfctl%procmin   =            0
                               sn_cfctl%procmax   =      1000000
                               sn_cfctl%procincr  =            1
                               sn_cfctl%ptimincr  =            1
       level of print                  nn_print   =            0
       Start i indice for SUM control  nn_ictls   =            0
       End i indice for SUM control    nn_ictle   =            0
       Start j indice for SUM control  nn_jctls   =            0
       End j indice for SUM control    nn_jctle   =            0
       number of proc. following i     nn_isplt   =            1
       number of proc. following j     nn_jsplt   =            1
       timing by routine               ln_timing  =  F
       CFL diagnostics                 ln_diacfl  =  F

    Namelist namcfg
       read domain configuration file                ln_read_cfg      =  F
          filename to be read                           cn_domcfg     = domain_cfg
          keep closed seas in the domain (if exist)     ln_closea     =  F
       create a configuration definition file        ln_write_cfg     =  F
          filename to be written                        cn_domcfg_out = domain_cfg_out
       use file attribute if exists as i/p j-start   ln_use_jattr     =  F

 phy_cst : initialization of ocean parameters and constants
 ~~~~~~~
       mathematical constant                 rpi =    3.1415926535897931     
       day                                rday   =    86400.000000000000       s
       sideral year                       rsiyea =    31558149.010110732       s
       sideral day                        rsiday =    86164.099655911836       s
       omega                              omega  =    7.2921150830460618E-005  s^-1

       nb of months per year               raamo =    12.000000000000000       months
       nb of hours per day                 rjjhh =    24.000000000000000       hours
       nb of minutes per hour              rhhmm =    60.000000000000000       mn
       nb of seconds per minute            rmmss =    60.000000000000000       s

       earth radius                         ra   =    6371229.0000000000       m
       gravity                              grav =    9.8066499999999994       m/s^2

       freezing point of water              rt0  =    273.14999999999998       K

    reference density and heat capacity now defined in eosbn2.f90

       thermal conductivity of pure ice          =    2.0343960000000001       J/s/m/K
       thermal conductivity of snow is defined in a namelist 
       fresh ice specific heat                   =    2067.0000000000000       J/kg/K
       latent heat of fusion of fresh ice / snow =    334000.00000000000       J/kg
       latent heat of subl.  of fresh ice / snow =    2834000.0000000000       J/kg
       density of sea ice                        =    917.00000000000000       kg/m^3
       density of snow                           =    330.00000000000000       kg/m^3
       density of freshwater (in melt ponds)     =    1000.0000000000000       kg/m^3
       salinity of ice (for pisces)              =    6.0000000000000000       psu
       salinity of sea (for pisces and isf)      =    34.700000000000003       psu
       latent heat of evaporation (water)        =    2500000.0000000000       J/m^3
       von Karman constant                       =   0.40000000000000002     
       Stefan-Boltzmann constant                 =    5.6699999999999998E-008  J/s/m^2/K^4

       conversion: degre ==> radian          rad =    1.7453292519943295E-002

       smallest real computer value       rsmall =    1.1102230246251565E-016

 eos_init : equation of state
 ~~~~~~~~
    Namelist nameos : Chosen the Equation Of Seawater (EOS)
       TEOS-10 : rho=F(Conservative Temperature, Absolute  Salinity, depth)   ln_TEOS10 =  F
       EOS-80  : rho=F(Potential    Temperature, Practical Salinity, depth)   ln_EOS80  =  T
       S-EOS   : rho=F(Conservative Temperature, Absolute  Salinity, depth)   ln_SEOS   =  F

    ==>>>   use of EOS-80 equation of state (pot. temp. and pract. salinity)

    ==>>>   model does not use Conservative Temperature

    Associated physical constant
       volumic mass of reference           rau0  =    1026.0000000000000       kg/m^3
       1. / rau0                        r1_rau0  =    9.7465886939571145E-004  m^3/kg
       ocean specific heat                 rcp   =    3991.8679571196299       J/Kelvin
       rau0 * rcp                       rau0_rcp =    4095656.5240047402     
       1. / ( rau0 * rcp )           r1_rau0_rcp =    2.4416109948160356E-007

 wad_init : Wetting and drying initialization through namelist read
 ~~~~~~~~
    Namelist namwad
       Logical for Iter Lim wd option   ln_wd_il     =  F
       Logical for Dir. Lim wd option   ln_wd_dl     =  F
       Depth at which wet/drying starts rn_wdmin0    =   0.29999999999999999     
       Minimum wet depth on dried cells rn_wdmin1    =   0.20000000000000001     
       Tolerance of min wet depth       rn_wdmin2    =    1.0000000000000000E-004
       land elevation threshold         rn_wdld      =    2.5000000000000000     
       Max iteration for W/D limiter    nn_wdit      =           20
       T => baroclinic u,v=0 at dry pts: ln_wd_dl_bc =  F
       use a ramp for rwd limiter:  ln_wd_dl_rwd_rmp =  F
       cut off depth sbc for wd   rn_wd_sbcdep       =    5.0000000000000000     
       fraction to start sbc wgt rn_wd_sbcfra        =   0.99900000000000000     
       No configuration file so seting ssh_ref to zero  

 dom_init : domain initialization
 ~~~~~~~~
    Domain info
       dimension of model:
              Local domain      Global domain       Data domain 
               jpi     :      62   jpiglo  :      62
               jpj     :      42   jpjglo  :      42
               jpk     :      31   jpkglo  :      31
               jpij    :    2604
       mpp local domain info (mpp):
               jpni    :            1    nn_hls  :            1
               jpnj    :            1    nn_hls  :            1
               jpnij   :            1
       lateral boundary of the Global domain : jperio  =            0
          (i.e. closed)
       Ocean model configuration used:
          cn_cfg = GYRE   nn_cfg =            2

 dom_glo : domain: global <<==>> local 
 ~~~~~~~ 
    global domain:   jpiglo =           62  jpjglo =           42  jpkglo =           31
    local  domain:   jpi    =           62  jpj    =           42  jpk    =           31

    conversion from local to global domain indices (and vise versa) done

 dom_nam : domain initialization through namelist read
 ~~~~~~~ 
    Namelist : namrun   ---   run parameters
       Assimilation cycle              nn_no           =            0
       experiment name for output      cn_exp          = GYRE
       file prefix restart input       cn_ocerst_in    = restart
       restart input directory         cn_ocerst_indir = .
       file prefix restart output      cn_ocerst_out   = restart
       restart output directory        cn_ocerst_outdir= .
       restart logical                 ln_rstart       =  F
       start with forward time step    nn_euler        =            1
       control of time step            nn_rstctl       =            0
       number of the first time step   nn_it000        =            1
       number of the last time step    nn_itend        =           60
       initial calendar date aammjj    nn_date0        =        10101
       initial time of day in hhmm     nn_time0        =            0
       leap year calendar (0/1)        nn_leapy        =           30
       initial state output            nn_istate       =            0
       frequency of restart file       nn_stock        =           60
       mask land points                ln_mskland      =  F
       additional CF standard metadata ln_cfmeta       =  F
       overwrite an existing file      ln_clobber      =  T
       NetCDF chunksize (bytes)        nn_chunksz      =            0
       IS coupling at the restart step ln_iscpl        =  F
       READ restart for a single file using XIOS ln_xios_read = F
       Write restart using XIOS        nn_wxios   =            0

    ==>>>   Start from rest (ln_rstart=F)
            an Euler initial time step is used : nn_euler is forced to 0 

    ==>>>   The IOIPSL calendar is "360d", i.e. 360 days in a year

    Namelist : namdom   ---   space & time domain
       linear free surface (=T)                ln_linssh   =  T
       create mesh/mask file                   ln_meshmask =  F
       treshold to open the isf cavity         rn_isfhmin  =    1.0000000000000000       [m]
       ocean time step                         rn_rdt      =    1800.0000000000000     
       asselin time filter parameter           rn_atfp     =   0.10000000000000001     
       online coarsening of dynamical fields   ln_crs      =  F

 dom_hgr : define the horizontal mesh from ithe following par_oce parameters 
 ~~~~~~~   
    namcfg : read (=T) or user defined (=F) configuration    ln_read_cfg  =  F

           User defined horizontal mesh (usr_def_hgr)

 usr_def_hgr : GYRE configuration (beta-plane with rotated regular grid-spacing)
 ~~~~~~~~~~~
                            beta-plane used. beta =    2.0020713612273290E-011  1/(s.m)
           Coriolis parameter have been set in usr_def_hgr routine
           u- & v-surfaces calculated as e1 e2 product

 dom_zgr : vertical coordinate
 ~~~~~~~
    linear free surface: the vertical mesh does not change in time

           User defined vertical mesh (usr_def_zgr)

 usr_def_zgr : GYRE configuration (z-coordinate closed flat box ocean without cavities)
 ~~~~~~~~~~~

     zgr_z   : Reference vertical z-coordinates 
     ~~~~~~~
        GYRE case : MI96 function with the following coefficients :
                  zsur =   -2033.1942952833849     
                  za0  =    155.83253696641529     
                  za1  =    146.36159186018901     
                  zkth =    17.285203724197910     
                  zacr =    5.0000000000000000     

               Reference 1D z-coordinate depth and scale factors:
          level  gdept_1d  gdepw_1d  e3t_1d   e3w_1d  
             1     4.98     0.00    10.00     9.95
             2    15.10    10.00    10.26    10.12
             3    25.54    20.27    10.65    10.44
             4    36.45    30.92    11.23    10.91
             5    48.07    42.15    12.09    11.62
             6    60.73    54.24    13.36    12.66
             7    74.94    67.60    15.24    14.21
             8    91.42    82.84    17.99    16.48
             9   111.22   100.82    21.99    19.80
            10   135.84   122.82    27.76    24.62
            11   167.35   150.58    35.94    31.50
            12   208.50   186.52    47.25    41.15
            13   262.83   233.77    62.44    54.33
            14   334.49   296.22    81.99    71.66
            15   427.90   378.20   105.84    93.41
            16   547.03   484.04   133.11   119.13
            17   694.55   617.15   162.10   147.52
            18   871.10   779.24   190.60   176.55
            19  1075.10   969.84   216.57   204.01
            20  1303.24  1186.41   238.62   228.13
            21  1551.23  1425.03   256.26   247.99
            22  1814.70  1681.29   269.71   263.48
            23  2089.75  1951.00   279.58   275.04
            24  2373.16  2230.58   286.64   283.41
            25  2662.49  2517.21   291.58   289.33
            26  2955.93  2808.79   294.99   293.44
            27  3252.20  3103.78   297.32   296.27
            28  3550.40  3401.10   298.91   298.20
            29  3849.90  3700.01   299.99   299.50
            30  4150.28  4000.00   300.71   300.38
            31  4451.26  4300.71   301.10   300.98

     zgr_top_bot : defines the top and bottom wet ocean levels.
     ~~~~~~~~~~~
        GYRE case : closed flat box ocean without ocean cavities

 clo_bat : suppression of closed seas
 ~~~~~~~
 No domain_cfg file => no suppression of closed seas.

    Type of vertical coordinate (read in domain_cfg file or set in userdef_nam) :
       z-coordinate - full steps      ln_zco    =  T
       z-coordinate - partial steps   ln_zps    =  F
       s- or hybrid z-s-coordinate    ln_sco    =  F
       ice shelf cavities             ln_isfcav =  F

     zgr_top_bot : ocean top and bottom k-index of T-, U-, V- and W-levels 
     ~~~~~~~~~~~

 dommsk : ocean mask 
 ~~~~~~
    Namelist namlbc
       lateral momentum boundary cond.    rn_shlat  =    0.0000000000000000     
       consistency with analytical form   ln_vorlat =  F

    ==>>>   ocean lateral  free-slip

 usr_def_fmask : NO alteration of fmask in specific straits 
 ~~~~~~~~~~~~~

 dom_ctl : extrema of the masked scale factors
 ~~~~~~~
              e1t maxi:   53000.00 at i =     2 j=     2
              e1t mini:   53000.00 at i =     2 j=     2
              e2t maxi:   53000.00 at i =     2 j=     2
              e2t mini:   53000.00 at i =     2 j=     2

 dom_init :   ==>>>   END of domain initialization
 ~~~~~~~~


 istate_init : Initialization of the dynamics and tracers
 ~~~~~~~~~~~

 dta_tsd_init : Temperature & Salinity data 
 ~~~~~~~~~~~~ 
    Namelist namtsd
       Initialisation of ocean T & S with T &S input data   ln_tsd_init =  F
       damping of ocean T & S toward T &S input data        ln_tsd_dmp  =  F


    ===>>   T & S data not used
  *** Info used values : 
    date ndastp                                      :        10100
    number of elapsed days since the begining of run :    0.0000000000000000     
    nn_time0                                         :            0

 =======>> 1/2 time step before the start of the run DATE Y/M/D =      0/12/30  nsec_day:   85500  nsec_week:   85500                     nsec_month: 2591100  nsec_year:31103100
======>> time-step =       1      New day, DATE Y/M/D = 0001/01/01      nday_year = 001
         nsec_year =      900   nsec_month =     900   nsec_day =   900
   nsec_week =    87300

 usr_def_istate : analytical definition of initial state 
 ~~~~~~~~~~~~~~   Ocean at rest, with an horizontally uniform T and S profiles

 tide_init : tidal components not used (ln_tide = F)
 ~~~~~~~~~ 

 sbc_init : surface boundary condition setting
 ~~~~~~~~ 
    Namelist namsbc (partly overwritten with CPP key setting)
       frequency update of sbc (and ice)             nn_fsbc       =            1
       Type of air-sea fluxes : 
          user defined formulation                   ln_usr        =  T
          flux         formulation                   ln_flx        =  F
          bulk         formulation                   ln_blk        =  F
       Type of coupling (Ocean/Ice/Atmosphere) : 
          ocean-atmosphere coupled formulation       ln_cpl        =  F
          mixed forced-coupled     formulation       ln_mixcpl     =  F
          OASIS coupling (with atm or sas)           lk_oasis      =  F
          components of your executable              nn_components =            0
       Sea-ice : 
          ice management in the sbc (=0/1/2/3)       nn_ice        =            2
          ice embedded into ocean                    ln_ice_embd   =  F
       Misc. options of sbc : 
          Light penetration in temperature Eq.       ln_traqsr     =  T
             daily mean to diurnal cycle qsr            ln_dm2dc   =  F
          Sea Surface Restoring on SST and/or SSS    ln_ssr        =  F
          FreshWater Budget control  (=0/1/2)        nn_fwb        =            0
          Patm gradient added in ocean & ice Eqs.    ln_apr_dyn    =  F
          runoff / runoff mouths                     ln_rnf        =  F
          iceshelf formulation                       ln_isf        =  F
          nb of iterations if land-sea-mask applied  nn_lsm        =            0
          surface wave                               ln_wave       =  F
                Stokes drift corr. to vert. velocity ln_sdw        =  F
                   vertical parametrization          nn_sdrift     =            0
                wave modified ocean stress           ln_tauwoc     =  F
                wave modified ocean stress component ln_tauw       =  F
                Stokes coriolis term                 ln_stcor      =  F
                neutral drag coefficient (CORE,NCAR) ln_cdgw       =  F

    ==>>>   NEMO configured as a single executable (i.e. including both OPA and Surface module)

    ==>>>   user defined forcing formulation

 sbc_ssm_init : sea surface mean fields, nn_fsbc=1 : instantaneous values
 ~~~~~~~~~~~ 
    default initialisation of ss._m arrays

 Sea Ice Model: SI3 (Sea Ice modelling Integrated Initiative)
 ~~~~~~~~~~~~~

 ice_init: Arrays allocation & Initialization of all routines & init state
 ~~~~~~~~
      file   : namelist_ice_ref open ok
      unit   =           21
      status = OLD
      form   = FORMATTED
      access = SEQUENTIAL

      file   : namelist_ice_cfg open ok
      unit   =           22
      status = OLD
      form   = FORMATTED
      access = SEQUENTIAL

      file   : output.namelist.ice open ok
      unit   =           23
      status = UNKNOWN
      form   = FORMATTED
      access = SEQUENTIAL


    par_init: ice parameters shared among all the routines
    ~~~~~~~~
       Namelist nampar: 
          number of ice  categories                           jpl       =            5
          number of ice  layers                               nlay_i    =            2
          number of snow layers                               nlay_s    =            1
          virtual ITD param for jpl=1 (T) or not (F)     ln_virtual_itd =  F
          Ice dynamics       (T) or not (F)                   ln_icedyn =  T
          Ice thermodynamics (T) or not (F)                   ln_icethd =  T
          maximum ice concentration for NH                              =   0.99700000000000000     
          maximum ice concentration for SH                              =   0.99700000000000000     

       ice timestep rdt_ice = nn_fsbc*rdt =    1800.0000000000000     

 ice_itd_init: Initialization of ice cat distribution 
 ~~~~~~~~~~~~
    Namelist namitd: 
       Ice categories are defined by a function of rn_himean**(-0.05)    ln_cat_hfn =  T
          mean ice thickness in the domain                               rn_himean  =    2.0000000000000000     
       Ice categories are defined by rn_catbnd                           ln_cat_usr =  F
       minimum ice thickness                                             rn_himin   =   0.10000000000000001     

    ===>>>   resulting thickness category boundaries :
             hi_max(:)=    0.0000000000000000       0.45401674241555168        1.1293138230836322        2.1414589889479725        3.6705964099155439        99.000000000000000     

 ice_thd_init: Ice Thermodynamics
 ~~~~~~~~~~~~
    Namelist namthd:
       activate ice thick change from top/bot (T) or not (F)   ln_icedH  =  T
       activate lateral melting (T) or not (F)                 ln_icedA  =  T
       activate ice growth in open-water (T) or not (F)        ln_icedO  =  T
       activate gravity drainage and flushing (T) or not (F)   ln_icedS  =  T

 ice_thd_zdf_init: Ice vertical heat diffusion
 ~~~~~~~~~~~~~~~~
    Namelist namthd_zdf:
       Bitz and Lipscomb (1999) formulation                    ln_zdf_BL99  =  T
       thermal conductivity in the ice (Untersteiner 1964)     ln_cndi_U64  =  F
       thermal conductivity in the ice (Pringle et al 2007)    ln_cndi_P07  =  T
       thermal conductivity in the snow                        rn_cnd_s     =   0.31000000000000000     
       extinction radiation parameter in sea ice               rn_kappa_i   =    1.0000000000000000     

 ice_thd_da_init: Ice lateral melting
 ~~~~~~~~~~~~~~~
    Namelist namthd_da:
       Coef. beta for lateral melting param.               rn_beta =    1.0000000000000000     
       Minimum floe diameter for lateral melting param.    rn_dmin =    8.0000000000000000     

 ice_thd_do_init: Ice growth in open water
 ~~~~~~~~~~~~~~~
    Namelist namthd_do:
       ice thickness for lateral accretion                       rn_hinew   =   0.10000000000000001     
       Frazil ice thickness as a function of wind or not         ln_frazil  =  F
       Maximum proportion of frazil ice collecting at bottom     rn_maxfraz =    1.0000000000000000     
       Threshold relative drift speed for collection of frazil   rn_vfraz   =   0.41699999999999998     
       Squeezing coefficient for collection of frazil            rn_Cfraz   =    5.0000000000000000     

 ice_thd_sal_init : Ice parameters for salinity 
 ~~~~~~~~~~~~~~~~
    Namelist namthd_sal:
       switch for salinity                                     nn_icesal  =            2
       bulk salinity value if nn_icesal = 1                    rn_icesal  =    4.0000000000000000     
       restoring salinity for gravity drainage                 rn_sal_gd  =    5.0000000000000000     
       restoring time for for gravity drainage                 rn_time_gd =    1730000.0000000000     
       restoring salinity for flushing                         rn_sal_fl  =    2.0000000000000000     
       restoring time for flushing                             rn_time_fl =    864000.00000000000     
       Maximum tolerated ice salinity                          rn_simax   =    20.000000000000000     
       Minimum tolerated ice salinity                          rn_simin   =   0.10000000000000001     

 ice_thd_pnd_init: ice parameters for melt ponds
 ~~~~~~~~~~~~~~~~
    Namelist namicethd_pnd:
       Melt ponds activated or not                                     ln_pnd     =  F
          Evolutive  melt pond fraction and depth (Holland et al 2012) ln_pnd_H12 =  F
          Prescribed melt pond fraction and depth                      ln_pnd_CST =  F
             Prescribed pond fraction                                  rn_apnd    =   0.20000000000000001     
             Prescribed pond depth                                     rn_hpnd    =    5.0000000000000003E-002
          Melt ponds affect albedo or not                              ln_pnd_alb =  F

 ice_istate_init: ice parameters inititialisation 
 ~~~~~~~~~~~~~~~
    Namelist namini:
       ice initialization (T) or not (F)                ln_iceini      =  F
       ice initialization from a netcdf file            ln_iceini_file =  F
       max ocean temp. above Tfreeze with initial ice   rn_thres_sst   =    2.0000000000000000     

  ===>>> : W A R N I N G

          ===============

 rn_apd_ini & rn_hpd_ini = 0 when no ponds


 ice_istate: sea-ice initialization 
 ~~~~~~~~~~

 ice_sbc_init: ice parameters for ice dynamics 
 ~~~~~~~~~~~~~~~~
    Namelist namsbc:
       drag coefficient for oceanic stress              rn_cio        =    5.0000000000000001E-003
       coefficient for ice-lead partition of snowfall   rn_blow_s     =   0.66000000000000003     
       Multicategory heat flux formulation              nn_flxdist    =           -1
       Use conduction flux as surface condition         ln_cndflx     =  F
          emulate conduction flux                       ln_cndemulate =  F

    SI3: use per-category fluxes (nn_flxdist = -1) 

 ice_dyn_init: ice parameters for ice dynamics 
 ~~~~~~~~~~~~
    Namelist namdyn:
       Full ice dynamics      (rhg + adv + ridge/raft + corr) ln_dynALL       =  T
       No ridge/raft & No cor (rhg + adv)                     ln_dynRHGADV    =  F
       Advection 1D only      (Schar & Smolarkiewicz 1996)    ln_dynADV1D     =  F
       Advection 2D only      (rn_uvice + adv)                ln_dynADV2D     =  F
          with prescribed velocity given by   (u,v)_ice = (rn_uice,rn_vice)   = (  0.50000000000000000      ,  0.50000000000000000      )
       lateral boundary condition for sea ice dynamics        rn_ishlat       =    2.0000000000000000     
       Landfast: param from Lemieux 2016                      ln_landfast_L16 =  F
          fraction of ocean depth that ice must reach         rn_depfra       =   0.12500000000000000     
          maximum bottom stress per unit area of contact      rn_icebfr       =    15.000000000000000     
          relax time scale (s-1) to reach static friction     rn_lfrelax      =    1.0000000000000001E-005
          isotropic tensile strength                          rn_tensile      =    5.0000000000000003E-002

    ===>>>   ice lateral  no-slip

 ice_dyn_rdgrft_init: ice parameters for ridging/rafting 
 ~~~~~~~~~~~~~~~~~~
    Namelist namdyn_rdgrft:
       ice strength parameterization Hibler (1979)              ln_str_H79   =  T
             1st bulk-rheology parameter                        rn_pstar     =    20000.000000000000     
             2nd bulk-rhelogy parameter                         rn_crhg      =    20.000000000000000     
       Fraction of shear energy contributing to ridging         rn_csrdg     =   0.50000000000000000     
       linear ridging participation function                    ln_partf_lin =  F
             Fraction of ice coverage contributing to ridging   rn_gstar     =   0.14999999999999999     
       Exponential ridging participation function               ln_partf_exp =  T
             Equivalent to G* for an exponential function       rn_astar     =    2.9999999999999999E-002
       Ridging of ice sheets or not                             ln_ridging   =  T
             max ridged ice thickness                           rn_hstar     =    25.000000000000000     
             Initial porosity of ridges                         rn_porordg   =   0.29999999999999999     
             Fraction of snow volume conserved during ridging   rn_fsnwrdg   =   0.50000000000000000     
             Fraction of pond volume conserved during ridging   rn_fpndrdg   =    1.0000000000000000     
       Rafting of ice sheets or not                             ln_rafting   =  T
             Parmeter thickness (threshold between ridge-raft)  rn_hraft     =   0.75000000000000000     
             Rafting hyperbolic tangent coefficient             rn_craft     =    5.0000000000000000     
             Fraction of snow volume conserved during rafting   rn_fsnwrft   =   0.50000000000000000     
             Fraction of pond volume conserved during rafting   rn_fpndrft   =    1.0000000000000000     

 ice_dyn_rhg_init: ice parameters for ice dynamics 
 ~~~~~~~~~~~~~~~
    Namelist : namdyn_rhg:
       rheology EVP (icedyn_rhg_evp)                        ln_rhg_EVP =  T
          use adaptive EVP (aEVP)                           ln_aEVP    =  T
          creep limit                                       rn_creepl  =    2.0000000000000001E-009
          eccentricity of the elliptical yield curve        rn_ecc     =    2.0000000000000000     
          number of iterations for subcycling               nn_nevp    =          120
          ratio of elastic timescale over ice time step     rn_relast  =   0.33300000000000002     

    ==>>>   start from rest: set stresses to 0

 ice_dyn_adv_init: ice parameters for ice dynamics 
 ~~~~~~~~~~~~~~~~
    Namelist namdyn_adv:
       type of advection scheme (Prather)             ln_adv_Pra =  T
       type of advection scheme (Ulimate-Macho)       ln_adv_UMx =  F
          order of the Ultimate-Macho scheme          nn_UMx     =            5
    ==>>   start from rest OR previous run without Prather, set moments to 0

 ice_update_init: ice-ocean stress init
 ~~~~~~~~~~~~~~~
    ==>>   start from rest: set the snow-ice mass

 ice_alb_init: set albedo parameters
 ~~~~~~~~~~~~
    Namelist namalb:
       albedo of dry snow                   rn_alb_sdry =   0.84999999999999998     
       albedo of melting snow               rn_alb_smlt =   0.75000000000000000     
       albedo of dry ice                    rn_alb_idry =   0.59999999999999998     
       albedo of bare puddled ice           rn_alb_imlt =   0.50000000000000000     
       albedo of ponded ice                 rn_alb_dpnd =   0.27000000000000002     

 ice_dia_init: ice diagnostics
  ~~~~~~~~~~~
    Namelist namdia:
       Diagnose online heat/mass/salt conservation ln_icediachk  =  F
          threshold for conservation (gridcell)    rn_icechk_cel =    100.00000000000000     
          threshold for conservation (global)      rn_icechk_glo =    1.0000000000000000     
       Output          heat/mass/salt budget       ln_icediahsb  =  F
       control prints for a given grid point       ln_icectl     =  F
          chosen grid point position          (iiceprt,jiceprt)  = (          10 ,          10 )

 bdy_init : open boundaries not used (ln_bdy = F)
 ~~~~~~~~

 zdf_phy_init: ocean vertical physics
 ~~~~~~~~~~~~
    Namelist namzdf : set vertical mixing mixing parameters
       adaptive-implicit vertical advection
          Courant number targeted application   ln_zad_Aimp =  F
       vertical closure scheme
          constant vertical mixing coefficient    ln_zdfcst =  F
          Richardson number dependent closure     ln_zdfric =  F
          Turbulent Kinetic Energy closure (TKE)  ln_zdftke =  T
          Generic Length Scale closure (GLS)      ln_zdfgls =  F
          OSMOSIS-OBL closure (OSM)               ln_zdfosm =  F
       convection: 
          enhanced vertical diffusion             ln_zdfevd =  T
             applied on momentum (=1/0)             nn_evdm =            1
             vertical coefficient for evd           rn_evd  =    100.00000000000000     
          non-penetrative convection (npc)        ln_zdfnpc =  F
             npc call  frequency                    nn_npc  =            1
             npc print frequency                    nn_npcp =          365
       double diffusive mixing                    ln_zdfddm =  F
          maximum avs for dd mixing                 rn_avts =    1.0000000000000000E-004
          heat/salt buoyancy flux ratio             rn_hsbfr=    1.6000000000000001     
       gravity wave-induced mixing
          surface  wave (Qiao et al 2010)         ln_zdfswm =  F
          internal wave (de Lavergne et al 2017)  ln_zdfiwm =  F
       coefficients : 
          vertical eddy viscosity                 rn_avm0   =    1.2000000000000000E-004
          vertical eddy diffusivity               rn_avt0   =    1.2000000000000000E-005
          constant background or profile          nn_avb    =            0
          horizontal variation for avtb           nn_havtb  =            0

    ==>>>   convection: use enhanced vertical diffusion scheme

    ==>>>   No  double diffusive mixing: avs = avt

 zdf_tke_init : tke turbulent closure scheme - initialisation
 ~~~~~~~~~~~~
    Namelist namzdf_tke : set tke mixing parameters
       coef. to compute avt                        rn_ediff  =   0.10000000000000001     
       Kolmogoroff dissipation coef.               rn_ediss  =   0.69999999999999996     
       tke surface input coef.                     rn_ebb    =    67.829999999999998     
       minimum value of tke                        rn_emin   =    9.9999999999999995E-007
       surface minimum value of tke                rn_emin0  =    1.0000000000000000E-004
       prandl number flag                          nn_pdl    =            1
       background shear (>0)                       rn_bshear =    9.9999999999999995E-021
       mixing length type                          nn_mxl    =            2
          surface mixing length = F(stress) or not    ln_mxl0   =  T
          surface  mixing length minimum value        rn_mxl0   =    4.0000000000000001E-002
       top/bottom friction forcing flag            ln_drg    =  F
       Langmuir cells parametrization              ln_lc     =  T
          coef to compute vertical velocity of LC     rn_lc  =   0.14999999999999999     
       test param. to add tke induced by wind      nn_etau   =            0
           type of tke penetration profile            nn_htau   =            1
           fraction of TKE that penetrates            rn_efr    =    5.0000000000000003E-002
           below sea-ice:  =0 ON                      rn_eice   =    4.0000000000000000     
           =4 OFF when ice fraction > 1/4   

    ==>>>   critical Richardson nb with your parameters  ri_cri =   0.22222222222222221     

    ==>>>   minimum mixing length with your parameters rmxl_min =    9.9999999999999985E-003

    ==>>>   use a surface mixing length = F(stress) :   set rn_mxl0 = rmxl_min

    ==>>>   start from rest: set en to the background value

 zdf_drg_init : top and/or bottom drag setting
 ~~~~~~~~~~~~
    Namelist namdrg : top/bottom friction choices
       free-slip       : Cd = 0                  ln_OFF      =  F
       linear  drag    : Cd = Cd0                ln_lin      =  F
       non-linear  drag: Cd = Cd0_nl |U|         ln_non_lin  =  T
       logarithmic drag: Cd = vkarmn/log(z/z0)   ln_loglayer =  F
       implicit friction                         ln_drgimp   =  T

    Namelist namdrg_bot : set BOTTOM friction parameters
       drag coefficient                        rn_Cd0   =    1.0000000000000000E-003
       characteristic velocity (linear case)   rn_Uc0   =   0.40000000000000002       m/s
       non-linear drag maximum                 rn_Cdmax =   0.10000000000000001     
       background kinetic energy  (n-l case)   rn_ke0   =    2.5000000000000001E-003
       bottom roughness           (n-l case)   rn_z0    =    3.0000000000000001E-003
       set a regional boost of Cd0             ln_boost =  F
          associated boost factor              rn_boost =    50.000000000000000     

    ==>>>   quadratic BOTTOM friction (propotional to module of the velocity)
    with    a drag coefficient Cd0 =    1.0000000000000000E-003 , and
            a background velocity module of (rn_ke0)^1/2 =    5.0000000000000003E-002 m/s)

 ldf_tra_init : lateral tracer diffusion
 ~~~~~~~~~~~~ 
    Namelist : namtra_ldf --- lateral mixing parameters (type, direction, coefficients)
       type :
          no explicit diffusion                   ln_traldf_OFF   =  F
          laplacian operator                      ln_traldf_lap   =  T
          bilaplacian operator                    ln_traldf_blp   =  F
       direction of action :
          iso-level                               ln_traldf_lev   =  F
          horizontal (geopotential)               ln_traldf_hor   =  F
          iso-neutral Madec operator              ln_traldf_iso   =  T
          iso-neutral triad operator              ln_traldf_triad =  F
             use the Method of Stab. Correction   ln_traldf_msc   =  F
             maximum isoppycnal slope             rn_slpmax       =    1.0000000000000000E-002
             pure lateral mixing in ML            ln_triad_iso    =  F
             switching triad or not               rn_sw_triad     =    1.0000000000000000     
             lateral mixing on bottom             ln_botmix_triad =  F
       coefficients :
          type of time-space variation            nn_aht_ijk_t    =            0
             lateral diffusive velocity (if cst)  rn_Ud           =    2.0000000000000000E-002  m/s
             lateral diffusive length   (if cst)  rn_Ld           =    100000.00000000000       m

    ==>>>   Rotated laplacian operator (standard)

    ==>>>   eddy diffusivity = constant =    1000.0000000000000       m2/s

 ldf_eiv_init : eddy induced velocity parametrization
 ~~~~~~~~~~~~ 
    Namelist namtra_eiv : 
       Eddy Induced Velocity (eiv) param.         ln_ldfeiv     =  F
       eiv streamfunction & velocity diag.        ln_ldfeiv_dia =  F
       coefficients :
          type of time-space variation            nn_aei_ijk_t  =            0
          lateral diffusive velocity (if cst)     rn_Ue         =    2.0000000000000000E-002  m/s
          lateral diffusive length   (if cst)     rn_Le         =    200000.00000000000       m

    ==>>>   eddy induced velocity param is NOT used

 ldf_dyn : lateral momentum physics
 ~~~~~~~
    Namelist namdyn_ldf : set lateral mixing parameters
       type :
          no explicit diffusion                ln_dynldf_OFF =  F
          laplacian operator                   ln_dynldf_lap =  T
          bilaplacian operator                 ln_dynldf_blp =  F
       direction of action :
          iso-level                            ln_dynldf_lev =  T
          horizontal (geopotential)            ln_dynldf_hor =  F
          iso-neutral                          ln_dynldf_iso =  F
       coefficients :
          type of time-space variation         nn_ahm_ijk_t  =            0
          lateral viscous velocity  (if cst)      rn_Uv      =    2.0000000000000000       m/s
          lateral viscous length    (if cst)      rn_Lv      =    100000.00000000000       m
          background viscosity (iso-lap case)     rn_ahm_b   =    0.0000000000000000       m2/s
       Smagorinsky settings (nn_ahm_ijk_t  = 32) :
          Smagorinsky coefficient              rn_csmc       =    3.5000000000000000     
          factor multiplier for eddy visc.
             lower limit (default 1.0)         rn_minfac    =    1.0000000000000000     
             upper limit (default 1.0)         rn_maxfac    =    1.0000000000000000     

    ==>>>   iso-level laplacian operator

    ==>>>   eddy viscosity. = constant =    100000.00000000000       m2/s

 tra_qsr_init : penetration of the surface solar radiation
 ~~~~~~~~~~~~
    Namelist namtra_qsr : set the parameter of penetration
       RGB (Red-Green-Blue) light penetration       ln_qsr_rgb =  F
       2 band               light penetration       ln_qsr_2bd =  T
       bio-model            light penetration       ln_qsr_bio =  F
       RGB : Chl data (=1) or cst value (=0)        nn_chldta  =            0
       RGB & 2 bands: fraction of light (rn_si1)    rn_abs     =   0.57999999999999996     
       RGB & 2 bands: shortess depth of extinction  rn_si0     =   0.34999999999999998     
       2 bands: longest depth of extinction         rn_si1     =    23.000000000000000     

    ==>>>   2 bands light penetration
         level of light extinction =           18  ref depth =    969.84377441468268       m

 tra_bbc : Bottom Boundary Condition (bbc), apply a Geothermal heating
 ~~~~~~~   
    Namelist nambbc : set bbc parameters
       Apply a geothermal heating at ocean bottom   ln_trabbc     =  F
       type of geothermal flux                      nn_geoflx     =            2
       Constant geothermal flux value               rn_geoflx_cst =    8.6400000000000005E-002

    ==>>>   no geothermal heat flux

 tra_bbl_init : bottom boundary layer initialisation
 ~~~~~~~~~~~~
        Namelist nambbl : set bbl parameters
           bottom boundary layer flag          ln_trabbl  =  F

 tra_dmp_init : T and S newtonian relaxation
 ~~~~~~~~~~~~
    Namelist namtra_dmp : set relaxation parameters
       Apply relaxation   or not       ln_tradmp   =  F
          mixed layer damping option      nn_zdmp  =            0
          Damping file name               cn_resto = resto.nc                                                                                                                                                                                                


 tra_adv_init : choice/control of the tracer advection scheme
 ~~~~~~~~~~~~
    Namelist namtra_adv : chose a advection scheme for tracers
       No advection on T & S                     ln_traadv_OFF =  F
       centered scheme                           ln_traadv_cen =  F
             horizontal 2nd/4th order               nn_cen_h   =            2
             vertical   2nd/4th order               nn_cen_v   =            2
       Flux Corrected Transport scheme           ln_traadv_fct =  T
             horizontal 2nd/4th order               nn_fct_h   =            2
             vertical   2nd/4th order               nn_fct_v   =            2
       MUSCL scheme                              ln_traadv_mus =  F
             + upstream scheme near river mouths    ln_mus_ups =  F
       UBS scheme                                ln_traadv_ubs =  F
             vertical   2nd/4th order               nn_ubs_v   =            2
       QUICKEST scheme                           ln_traadv_qck =  F

    ==>>>   FCT      scheme is used. Horizontal order:            2  Vertical   order:            2

 tra_mle_init : mixed layer eddy (MLE) advection acting on tracers
 ~~~~~~~~~~~~~
    Namelist namtra_mle : mixed layer eddy advection applied on tracers
       use mixed layer eddy (MLE, i.e. Fox-Kemper param) (T/F)      ln_mle       =  F
          MLE type: =0 standard Fox-Kemper ; =1 new formulation        nn_mle    =            1
          magnitude of the MLE (typical value: 0.06 to 0.08)           rn_ce     =    5.9999999999999998E-002
          scale of ML front (ML radius of deformation) (rn_mle=0)      rn_lf     =    5000.0000000000000      m
          maximum time scale of MLE                    (rn_mle=0)      rn_time   =    172800.00000000000      s
          reference latitude (degrees) of MLE coef.    (rn_mle=1)      rn_lat    =    20.000000000000000      deg
          space interp. of MLD at u-(v-)pts (0=min,1=averaged,2=max)   nn_mld_uv =            0
          =1 no MLE in case of convection ; =0 always MLE              nn_conv   =            0
          Density difference used to define ML for FK              rn_rho_c_mle  =    1.0000000000000000E-002

    ==>>>   Mixed Layer Eddy parametrisation NOT used

 tra_ldf_init : lateral tracer diffusive operator
 ~~~~~~~~~~~~
    Namelist namtra_ldf: already read in ldftra module
       see ldf_tra_init report for lateral mixing parameters

    ==>>>   Rotated laplacian operator (standard)

 dyn_adv_init : choice/control of the momentum advection scheme
 ~~~~~~~~~~~~
    Namelist namdyn_adv : chose a advection formulation & scheme for momentum
       linear dynamics : no momentum advection          ln_dynadv_OFF  =  F
       Vector form: 2nd order centered scheme           ln_dynadv_vec  =  T
          with Hollingsworth scheme (=1) or not (=0)       nn_dynkeg   =            0
       flux form: 2nd order centred scheme              ln_dynadv_cen2 =  F
                  3rd order UBS scheme                  ln_dynadv_ubs  =  F

    ==>>>   vector form : keg + zad + vor is used
               with Centered standard keg scheme

 dyn_vor_init : vorticity term : read namelist and control the consistency
 ~~~~~~~~~~~~
    Namelist namdyn_vor : choice of the vorticity term scheme
       enstrophy conserving scheme                    ln_dynvor_ens =  F
       f-point energy conserving scheme               ln_dynvor_ene =  T
       t-point energy conserving scheme               ln_dynvor_enT =  F
       energy conserving scheme  (een using e3t)      ln_dynvor_eeT =  F
       enstrophy and energy conserving scheme         ln_dynvor_een =  F
          e3f = averaging /4 (=0) or /sum(tmask) (=1)    nn_een_e3f =            0
       mixed enstrophy/energy conserving scheme       ln_dynvor_mix =  F
       masked (=T) or unmasked(=F) vorticity          ln_dynvor_msk =  F

       change fmask value in the angles (T)           ln_vorlat =  F

    ==>>>   vector form dynamics : total vorticity = Coriolis + relative vorticity

    ==>>>   energy conserving scheme (Coriolis at F-points) (ENE)

 dyn_ldf_init : Choice of the lateral diffusive operator on dynamics
 ~~~~~~~~~~~~
    Namelist namdyn_ldf: already read in ldfdyn module
       see ldf_dyn_init report for lateral mixing parameters

    ==>>>   iso-level laplacian operator

 dyn_hpg_init : hydrostatic pressure gradient initialisation
 ~~~~~~~~~~~~
    Namelist namdyn_hpg : choice of hpg scheme
       z-coord. - full steps                             ln_hpg_zco    =  T
       z-coord. - partial steps (interpolation)          ln_hpg_zps    =  F
       s-coord. (standard jacobian formulation)          ln_hpg_sco    =  F
       s-coord. (standard jacobian formulation) for isf  ln_hpg_isf    =  F
       s-coord. (Density Jacobian: Cubic polynomial)     ln_hpg_djc    =  F
       s-coord. (Pressure Jacobian: Cubic polynomial)    ln_hpg_prj    =  F

    ==>>>   z-coord. - full steps 


 dyn_spg_init : choice of the surface pressure gradient scheme
 ~~~~~~~~~~~~
    Namelist : namdyn_spg                    
       Explicit free surface                  ln_dynspg_exp =  F
       Free surface with time splitting       ln_dynspg_ts  =  T

    ==>>>   free surface with time splitting scheme

 dyn_spg_ts_init : split-explicit free surface
 ~~~~~~~~~~~~~~~
      ln_ts_auto =.true. Automatically set nn_baro 
      Max. courant number allowed:   0.80000000000000004     
      ln_bt_av =.true.  ==> Time averaging over nn_baro time steps is on 
      ln_bt_fw=.true.  => Forward integration of barotropic variables 
      Time filter choice, nn_bt_flt:            1
            Boxcar: width = nn_baro
  
      nn_baro =           13
      Barotropic time step [s] is :   138.46153846153845     
      Maximum Courant number is   :  0.75874999122383457     
      Time diffusion parameter rn_bt_alpha:    0.0000000000000000     

    ==>>>   start from rest: set barotropic values to 0

 ldf_slp_init : direction of lateral mixing
 ~~~~~~~~~~~~
    ==>>>   iso operator (Madec)

 icb_nam : iceberg initialization through namberg namelist read
 ~~~~~~~~ 

    ==>>>   No icebergs used

 sto_par_init : NO use of stochastic parameterization
 ~~~~~~~~~~~~

 flo_stp : call floats routine 
 ~~~~~~~

          Namelist floats :
             Activate floats or not                   ln_floats    =  F
                number of floats                      jpnfl        =            1
                number of new floats                  jpnflnewflo  =            0
                restart                               ln_rstflo    =  F
                frequency of float output file        nn_writefl   =           75
                frequency of float restart file       nn_stockfl   =         5475
                Argo type floats                      ln_argo      =  F
                Computation of T trajectories         ln_flork4    =  F
                Use of ariane convention              ln_ariane    =  T
                ascii output (T) or netcdf output (F) ln_flo_ascii =  T

 dia_ptr_init : poleward transport and msf initialization
 ~~~~~~~~~~~~
    Namelist namptr : set ptr parameters
       Poleward heat & salt transport (T) or not (F)      ln_diaptr  =  F
       Global (F) or glo/Atl/Pac/Ind/Indo-Pac basins      ln_subbas  =  F
  
 diadct_init: compute transports through sections 
 ~~~~~~~~~~~~~~~~~~~~~
        Calculate transport thru sections: ln_diadct =  F
        Frequency of computation:          nn_dct    =           15
        Frequency of write:                nn_dctwri =           15
        Debug section number:          112

 dia_hsb_init : heat and salt budgets diagnostics
 ~~~~~~~~~~~~ 
    Namelist  namhsb :
       check the heat and salt budgets (T) or not (F)       ln_diahsb =  F

 trd_init : Momentum/Tracers trends
 ~~~~~~~~
    Namelist namtrd : set trends parameters
       global domain averaged dyn & tra trends   ln_glo_trd  =  F
       U & V trends: 3D output                   ln_dyn_trd  =  F
       U & V trends: Mixed Layer averaged        ln_dyn_mxl  =  F
       T & S trends: 3D output                   ln_tra_trd  =  F
       T & S trends: Mixed Layer averaged        ln_tra_mxl  =  F
       Kinetic   Energy trends                   ln_KE_trd   =  F
       Potential Energy trends                   ln_PE_trd   =  F
       Barotropic vorticity trends               ln_vor_trd  =  F
       frequency of trends diagnostics (glo)     nn_trd      =          365

 dia_obs_init : NO Observation diagnostic used
 ~~~~~~~~~~~~

 dia_tmb_init : Output Top, Middle, Bottom Diagnostics
 ~~~~~~~~~~~~
    Namelist nam_diatmb : set tmb outputs 
       Switch for TMB diagnostics (T) or not (F)  ln_diatmb  =  F

 dia_25h_init : Output 25 hour mean diagnostics
 ~~~~~~~~~~~~
    Namelist nam_dia25h : set 25h outputs 
       Switch for 25h diagnostics (T) or not (F)  ln_dia25h  =  F

 dia_harm_init: Tidal harmonic analysis initialization
 ~~~~~~~ 
 Tidal diagnostics =  F
    First time step used for analysis:         nit000_han=            1
    Last  time step used for analysis:         nitend_han=           75
    Time step frequency for harmonic analysis: nstep_han =           15

AAAAAAAA


AAAAAAAA


 usrdef_sbc_oce : analytical surface fluxes for GYRE configuration
 ~~~~~~~~~~~ 
            nyear      =            1
            nmonth     =            1
            nday       =            1
            nday_year  =            1
            ztime      =   0.50000000000000000     
            ztimemax   =    4104.0000000000000     
            ztimemin   =    8424.0000000000000     
            ztimemax1  =    4104.0000000000000     
            ztimemin1  =    8424.0000000000000     
            ztimemax2  =    4824.0000000000000     
            ztimemin2  =    504.00000000000000     
            zyear0     =            1
            zmonth0    =            1
            zday0      =            1
            zday_year0 =            1
            zyydd      =    360.00000000000000     
            zemp_S     =   0.69999999999999996     
            zemp_N     =   0.80000000000000004     
            zemp_sais  =   0.10000000000000001     
            zTstar     =    28.300000000000001     
            zsumemp    =   -5.8946261434016155E-006
            zsurf      =    2400.0000000000000     
            ztrp       =   -40.000000000000000     
            zconv      =    3.1600000000000002E-005
            ndastp     =        10101
            adatrj     =    2.0833333333333332E-002

 ice_sbc_tau: Surface boundary condition for sea ice (momentum)
 ~~~~~~~~~~~~~~~
  usrdef_sbc_ice : NW2 case

 ice_dyn: sea-ice dynamics
 ~~~~~~~

 ice_dyn_rhg: sea-ice rheology
 ~~~~~~~~~~~
 -- ice_dyn_rhg_evp: EVP sea-ice rheology

 ice_dyn_adv: sea-ice advection
 ~~~~~~~~~~~
 -- ice_dyn_adv_pra: Prather advection scheme

 ice_dyn_rdgrft: ice ridging and rafting
 ~~~~~~~~~~~~~~
 -- ice_itd_reb: rebining ice thickness distribution

 ice_sbc_flx: Surface boundary condition for sea ice (flux)
 ~~~~~~~~~~~~~~~
  usrdef_sbc_ice : NW2 case

 ice_thd: sea-ice thermodynamics
 ~~~~~~~
 -- ice_itd_rem: remapping ice thickness distribution

 ice_cor:  correct sea ice variables if out of bounds 
 ~~~~~~~
 -- ice_itd_reb: rebining ice thickness distribution

 ice_update_flx: update fluxes (mass, salt and heat) at the ice-ocean interface
 ~~~~~~~~~~~~~~

 ice_update_tau: update stress at the ice-ocean interface
 ~~~~~~~~~~~~~~
           nit000-1 surface forcing fields set to nit000

 zdf_evd : Enhanced Vertical Diffusion (evd)
 ~~~~~~~ 


 zdf_mxl : mixed layer depth
 ~~~~~~~ 

 ssh_nxt : after sea surface height
 ~~~~~~~ 

 div_hor : horizontal velocity divergence 
 ~~~~~~~   

 wzv : now vertical velocity 
 ~~~~~ 

 dyn_keg : kinetic energy gradient trend, scheme number=           0
 ~~~~~~~

 dyn_zad : 2nd order vertical advection scheme

 dyn:vor_ene : vorticity term: energy conserving scheme
 ~~~~~~~~~~~

 dyn_ldf : iso-level harmonic (laplacian) operator, pass=           1
 ~~~~~~~ 

 dyn:hpg_zco : hydrostatic pressure gradient trend
 ~~~~~~~~~~~   z-coordinate case 

 dyn_spg_ts : surface pressure gradient trend
 ~~~~~~~~~~   free surface with time splitting


 div_hor : horizontal velocity divergence 
 ~~~~~~~   

 dyn_zdf_imp : vertical momentum diffusion implicit operator
 ~~~~~~~~~~~ 

 wzv : now vertical velocity 
 ~~~~~ 

 tra_sbc : TRAcer Surface Boundary Condition
 ~~~~~~~ 

 tra_qsr : penetration of the surface solar radiation
 ~~~~~~~

 tra_adv_fct : FCT advection scheme on TRA
 ~~~~~~~~~~~

 tra_ldf_iso : rotated laplacian diffusion operator on TRA
 ~~~~~~~~~~~

 tra_zdf : implicit vertical mixing on T & S
 ~~~~~~~ 

 tra_nxt : achieve the time stepping by Asselin filter and array swap
 ~~~~~~~

 dyn_nxt : time stepping
 ~~~~~~~

 ssh_swp : Asselin time filter and swap of sea surface height
 ~~~~~~~ 

 stp_ctl : time-stepping control
 ~~~~~~~
      file   : time.step open ok
      unit   =           24
      status = REPLACE
      form   = FORMATTED
      access = SEQUENTIAL

======>> time-step =      49      New day, DATE Y/M/D = 0001/01/02      nday_year = 002
         nsec_year =    87300   nsec_month =   87300   nsec_day =   900
   nsec_week =   173700

              open ocean restart NetCDF file: ./GYRE_00000060_restart
              kt = nitrst - 1 =           59
                     iom_nf90_open ~~~ create new file: ./GYRE_00000060_restart.nc in WRITE mode
                    ---> ./GYRE_00000060_restart.nc OK
           iom_nf90_rp0123d, file: ./GYRE_00000060_restart.nc, var: kt define dimension variables done
           iom_nf90_rp0123d, file: ./GYRE_00000060_restart.nc, var: kt defined ok
           iom_nf90_rp0123d, file: ./GYRE_00000060_restart.nc, var: ndastp defined ok
           iom_nf90_rp0123d, file: ./GYRE_00000060_restart.nc, var: adatrj defined ok
           iom_nf90_rp0123d, file: ./GYRE_00000060_restart.nc, var: ntime defined ok

              open ice restart NetCDF file: ./GYRE_00000060_restart_ice                         
              kt = nitrst - 2*nn_fsbc + 1 =           59  date=        10102
                     iom_nf90_open ~~~ create new file: ./GYRE_00000060_restart_ice.nc in WRITE mode
                    ---> ./GYRE_00000060_restart_ice.nc OK
 ---- rhg-rst ----
           iom_nf90_rp0123d, file: ./GYRE_00000060_restart_ice.nc, var: stress1_i define dimension variables done
           iom_nf90_rp0123d, file: ./GYRE_00000060_restart_ice.nc, var: stress1_i defined ok
           iom_nf90_rp0123d, file: ./GYRE_00000060_restart_ice.nc, var: stress2_i defined ok
           iom_nf90_rp0123d, file: ./GYRE_00000060_restart_ice.nc, var: stress12_i defined ok
 ----  ice-adv-rst  ----
           iom_nf90_rp0123d, file: ./GYRE_00000060_restart_ice.nc, var: sxice defined ok
           iom_nf90_rp0123d, file: ./GYRE_00000060_restart_ice.nc, var: syice defined ok
           iom_nf90_rp0123d, file: ./GYRE_00000060_restart_ice.nc, var: sxxice defined ok
           iom_nf90_rp0123d, file: ./GYRE_00000060_restart_ice.nc, var: syyice defined ok
           iom_nf90_rp0123d, file: ./GYRE_00000060_restart_ice.nc, var: sxyice defined ok
           iom_nf90_rp0123d, file: ./GYRE_00000060_restart_ice.nc, var: sxsn defined ok
           iom_nf90_rp0123d, file: ./GYRE_00000060_restart_ice.nc, var: sysn defined ok
           iom_nf90_rp0123d, file: ./GYRE_00000060_restart_ice.nc, var: sxxsn defined ok
           iom_nf90_rp0123d, file: ./GYRE_00000060_restart_ice.nc, var: syysn defined ok
           iom_nf90_rp0123d, file: ./GYRE_00000060_restart_ice.nc, var: sxysn defined ok
           iom_nf90_rp0123d, file: ./GYRE_00000060_restart_ice.nc, var: sxa defined ok
           iom_nf90_rp0123d, file: ./GYRE_00000060_restart_ice.nc, var: sya defined ok
           iom_nf90_rp0123d, file: ./GYRE_00000060_restart_ice.nc, var: sxxa defined ok
           iom_nf90_rp0123d, file: ./GYRE_00000060_restart_ice.nc, var: syya defined ok
           iom_nf90_rp0123d, file: ./GYRE_00000060_restart_ice.nc, var: sxya defined ok
           iom_nf90_rp0123d, file: ./GYRE_00000060_restart_ice.nc, var: sxsal defined ok
           iom_nf90_rp0123d, file: ./GYRE_00000060_restart_ice.nc, var: sysal defined ok
           iom_nf90_rp0123d, file: ./GYRE_00000060_restart_ice.nc, var: sxxsal defined ok
           iom_nf90_rp0123d, file: ./GYRE_00000060_restart_ice.nc, var: syysal defined ok
           iom_nf90_rp0123d, file: ./GYRE_00000060_restart_ice.nc, var: sxysal defined ok
           iom_nf90_rp0123d, file: ./GYRE_00000060_restart_ice.nc, var: sxage defined ok
           iom_nf90_rp0123d, file: ./GYRE_00000060_restart_ice.nc, var: syage defined ok
           iom_nf90_rp0123d, file: ./GYRE_00000060_restart_ice.nc, var: sxxage defined ok
           iom_nf90_rp0123d, file: ./GYRE_00000060_restart_ice.nc, var: syyage defined ok
           iom_nf90_rp0123d, file: ./GYRE_00000060_restart_ice.nc, var: sxyage defined ok
           iom_nf90_rp0123d, file: ./GYRE_00000060_restart_ice.nc, var: sxc0_l01 defined ok
           iom_nf90_rp0123d, file: ./GYRE_00000060_restart_ice.nc, var: syc0_l01 defined ok
           iom_nf90_rp0123d, file: ./GYRE_00000060_restart_ice.nc, var: sxxc0_l01 defined ok
           iom_nf90_rp0123d, file: ./GYRE_00000060_restart_ice.nc, var: syyc0_l01 defined ok
           iom_nf90_rp0123d, file: ./GYRE_00000060_restart_ice.nc, var: sxyc0_l01 defined ok
           iom_nf90_rp0123d, file: ./GYRE_00000060_restart_ice.nc, var: sxe_l01 defined ok
           iom_nf90_rp0123d, file: ./GYRE_00000060_restart_ice.nc, var: sye_l01 defined ok
           iom_nf90_rp0123d, file: ./GYRE_00000060_restart_ice.nc, var: sxxe_l01 defined ok
           iom_nf90_rp0123d, file: ./GYRE_00000060_restart_ice.nc, var: syye_l01 defined ok
           iom_nf90_rp0123d, file: ./GYRE_00000060_restart_ice.nc, var: sxye_l01 defined ok
           iom_nf90_rp0123d, file: ./GYRE_00000060_restart_ice.nc, var: sxe_l02 defined ok
           iom_nf90_rp0123d, file: ./GYRE_00000060_restart_ice.nc, var: sye_l02 defined ok
           iom_nf90_rp0123d, file: ./GYRE_00000060_restart_ice.nc, var: sxxe_l02 defined ok
           iom_nf90_rp0123d, file: ./GYRE_00000060_restart_ice.nc, var: syye_l02 defined ok
           iom_nf90_rp0123d, file: ./GYRE_00000060_restart_ice.nc, var: sxye_l02 defined ok
 ---- update-rst ----
           iom_nf90_rp0123d, file: ./GYRE_00000060_restart_ice.nc, var: snwice_mass defined ok
           iom_nf90_rp0123d, file: ./GYRE_00000060_restart_ice.nc, var: snwice_mass_b defined ok
           iom_nf90_rp0123d, file: ./GYRE_00000060_restart_ice.nc, var: nn_fsbc defined ok
           iom_nf90_rp0123d, file: ./GYRE_00000060_restart_ice.nc, var: kt_ice defined ok
           iom_nf90_rp0123d, file: ./GYRE_00000060_restart_ice.nc, var: v_i defined ok
           iom_nf90_rp0123d, file: ./GYRE_00000060_restart_ice.nc, var: v_s defined ok
           iom_nf90_rp0123d, file: ./GYRE_00000060_restart_ice.nc, var: sv_i defined ok
           iom_nf90_rp0123d, file: ./GYRE_00000060_restart_ice.nc, var: a_i defined ok
           iom_nf90_rp0123d, file: ./GYRE_00000060_restart_ice.nc, var: t_su defined ok
           iom_nf90_rp0123d, file: ./GYRE_00000060_restart_ice.nc, var: u_ice defined ok
           iom_nf90_rp0123d, file: ./GYRE_00000060_restart_ice.nc, var: v_ice defined ok
           iom_nf90_rp0123d, file: ./GYRE_00000060_restart_ice.nc, var: oa_i defined ok
           iom_nf90_rp0123d, file: ./GYRE_00000060_restart_ice.nc, var: a_ip defined ok
           iom_nf90_rp0123d, file: ./GYRE_00000060_restart_ice.nc, var: v_ip defined ok
           iom_nf90_rp0123d, file: ./GYRE_00000060_restart_ice.nc, var: e_s_l01 defined ok
           iom_nf90_rp0123d, file: ./GYRE_00000060_restart_ice.nc, var: e_i_l01 defined ok
           iom_nf90_rp0123d, file: ./GYRE_00000060_restart_ice.nc, var: e_i_l02 defined ok

 sbc : ocean surface forcing fields written in ocean restart file at it=           59  date=        10102
 ~~~~
           iom_nf90_rp0123d, file: ./GYRE_00000060_restart.nc, var: utau_b defined ok
           iom_nf90_rp0123d, file: ./GYRE_00000060_restart.nc, var: vtau_b defined ok
           iom_nf90_rp0123d, file: ./GYRE_00000060_restart.nc, var: qns_b defined ok
           iom_nf90_rp0123d, file: ./GYRE_00000060_restart.nc, var: emp_b defined ok
           iom_nf90_rp0123d, file: ./GYRE_00000060_restart.nc, var: sfx_b defined ok
 ---- tke_rst ----
           iom_nf90_rp0123d, file: ./GYRE_00000060_restart.nc, var: en defined ok
           iom_nf90_rp0123d, file: ./GYRE_00000060_restart.nc, var: avt_k defined ok
           iom_nf90_rp0123d, file: ./GYRE_00000060_restart.nc, var: avm_k defined ok
           iom_nf90_rp0123d, file: ./GYRE_00000060_restart.nc, var: dissl defined ok
 ---- ts_rst ----
           iom_nf90_rp0123d, file: ./GYRE_00000060_restart.nc, var: ub2_b defined ok
           iom_nf90_rp0123d, file: ./GYRE_00000060_restart.nc, var: vb2_b defined ok
           iom_nf90_rp0123d, file: ./GYRE_00000060_restart.nc, var: un_bf defined ok
           iom_nf90_rp0123d, file: ./GYRE_00000060_restart.nc, var: vn_bf defined ok
           iom_nf90_rp0123d, file: ./GYRE_00000060_restart.nc, var: sbc_hc_b defined ok
           iom_nf90_rp0123d, file: ./GYRE_00000060_restart.nc, var: sbc_sc_b defined ok
           iom_nf90_rp0123d, file: ./GYRE_00000060_restart.nc, var: qsr_hc_b defined ok
           iom_nf90_rp0123d, file: ./GYRE_00000060_restart.nc, var: fraqsr_1lev defined ok
           iom_nf90_rp0123d, file: ./GYRE_00000060_restart.nc, var: rdt defined ok
           iom_nf90_rp0123d, file: ./GYRE_00000060_restart.nc, var: ub defined ok
           iom_nf90_rp0123d, file: ./GYRE_00000060_restart.nc, var: vb defined ok
           iom_nf90_rp0123d, file: ./GYRE_00000060_restart.nc, var: tb defined ok
           iom_nf90_rp0123d, file: ./GYRE_00000060_restart.nc, var: sb defined ok
           iom_nf90_rp0123d, file: ./GYRE_00000060_restart.nc, var: sshb defined ok
           iom_nf90_rp0123d, file: ./GYRE_00000060_restart.nc, var: un defined ok
           iom_nf90_rp0123d, file: ./GYRE_00000060_restart.nc, var: vn defined ok
           iom_nf90_rp0123d, file: ./GYRE_00000060_restart.nc, var: tn defined ok
           iom_nf90_rp0123d, file: ./GYRE_00000060_restart.nc, var: sn defined ok
           iom_nf90_rp0123d, file: ./GYRE_00000060_restart.nc, var: sshn defined ok
           iom_nf90_rp0123d, file: ./GYRE_00000060_restart.nc, var: rhop defined ok

 rst_write : write oce restart file  kt =          60
 ~~~~~~~
           iom_nf90_rp0123d, file: ./GYRE_00000060_restart.nc, var: kt written ok
           iom_nf90_rp0123d, file: ./GYRE_00000060_restart.nc, var: ndastp written ok
           iom_nf90_rp0123d, file: ./GYRE_00000060_restart.nc, var: adatrj written ok
           iom_nf90_rp0123d, file: ./GYRE_00000060_restart.nc, var: ntime written ok
 ---- rhg-rst ----
           iom_nf90_rp0123d, file: ./GYRE_00000060_restart_ice.nc, var: stress1_i write dimension variables done
           iom_nf90_rp0123d, file: ./GYRE_00000060_restart_ice.nc, var: stress1_i written ok
           iom_nf90_rp0123d, file: ./GYRE_00000060_restart_ice.nc, var: stress2_i written ok
           iom_nf90_rp0123d, file: ./GYRE_00000060_restart_ice.nc, var: stress12_i written ok
 ----  ice-adv-rst  ----
           iom_nf90_rp0123d, file: ./GYRE_00000060_restart_ice.nc, var: sxice written ok
           iom_nf90_rp0123d, file: ./GYRE_00000060_restart_ice.nc, var: syice written ok
           iom_nf90_rp0123d, file: ./GYRE_00000060_restart_ice.nc, var: sxxice written ok
           iom_nf90_rp0123d, file: ./GYRE_00000060_restart_ice.nc, var: syyice written ok
           iom_nf90_rp0123d, file: ./GYRE_00000060_restart_ice.nc, var: sxyice written ok
           iom_nf90_rp0123d, file: ./GYRE_00000060_restart_ice.nc, var: sxsn written ok
           iom_nf90_rp0123d, file: ./GYRE_00000060_restart_ice.nc, var: sysn written ok
           iom_nf90_rp0123d, file: ./GYRE_00000060_restart_ice.nc, var: sxxsn written ok
           iom_nf90_rp0123d, file: ./GYRE_00000060_restart_ice.nc, var: syysn written ok
           iom_nf90_rp0123d, file: ./GYRE_00000060_restart_ice.nc, var: sxysn written ok
           iom_nf90_rp0123d, file: ./GYRE_00000060_restart_ice.nc, var: sxa written ok
           iom_nf90_rp0123d, file: ./GYRE_00000060_restart_ice.nc, var: sya written ok
           iom_nf90_rp0123d, file: ./GYRE_00000060_restart_ice.nc, var: sxxa written ok
           iom_nf90_rp0123d, file: ./GYRE_00000060_restart_ice.nc, var: syya written ok
           iom_nf90_rp0123d, file: ./GYRE_00000060_restart_ice.nc, var: sxya written ok
           iom_nf90_rp0123d, file: ./GYRE_00000060_restart_ice.nc, var: sxsal written ok
           iom_nf90_rp0123d, file: ./GYRE_00000060_restart_ice.nc, var: sysal written ok
           iom_nf90_rp0123d, file: ./GYRE_00000060_restart_ice.nc, var: sxxsal written ok
           iom_nf90_rp0123d, file: ./GYRE_00000060_restart_ice.nc, var: syysal written ok
           iom_nf90_rp0123d, file: ./GYRE_00000060_restart_ice.nc, var: sxysal written ok
           iom_nf90_rp0123d, file: ./GYRE_00000060_restart_ice.nc, var: sxage written ok
           iom_nf90_rp0123d, file: ./GYRE_00000060_restart_ice.nc, var: syage written ok
           iom_nf90_rp0123d, file: ./GYRE_00000060_restart_ice.nc, var: sxxage written ok
           iom_nf90_rp0123d, file: ./GYRE_00000060_restart_ice.nc, var: syyage written ok
           iom_nf90_rp0123d, file: ./GYRE_00000060_restart_ice.nc, var: sxyage written ok
           iom_nf90_rp0123d, file: ./GYRE_00000060_restart_ice.nc, var: sxc0_l01 written ok
           iom_nf90_rp0123d, file: ./GYRE_00000060_restart_ice.nc, var: syc0_l01 written ok
           iom_nf90_rp0123d, file: ./GYRE_00000060_restart_ice.nc, var: sxxc0_l01 written ok
           iom_nf90_rp0123d, file: ./GYRE_00000060_restart_ice.nc, var: syyc0_l01 written ok
           iom_nf90_rp0123d, file: ./GYRE_00000060_restart_ice.nc, var: sxyc0_l01 written ok
           iom_nf90_rp0123d, file: ./GYRE_00000060_restart_ice.nc, var: sxe_l01 written ok
           iom_nf90_rp0123d, file: ./GYRE_00000060_restart_ice.nc, var: sye_l01 written ok
           iom_nf90_rp0123d, file: ./GYRE_00000060_restart_ice.nc, var: sxxe_l01 written ok
           iom_nf90_rp0123d, file: ./GYRE_00000060_restart_ice.nc, var: syye_l01 written ok
           iom_nf90_rp0123d, file: ./GYRE_00000060_restart_ice.nc, var: sxye_l01 written ok
           iom_nf90_rp0123d, file: ./GYRE_00000060_restart_ice.nc, var: sxe_l02 written ok
           iom_nf90_rp0123d, file: ./GYRE_00000060_restart_ice.nc, var: sye_l02 written ok
           iom_nf90_rp0123d, file: ./GYRE_00000060_restart_ice.nc, var: sxxe_l02 written ok
           iom_nf90_rp0123d, file: ./GYRE_00000060_restart_ice.nc, var: syye_l02 written ok
           iom_nf90_rp0123d, file: ./GYRE_00000060_restart_ice.nc, var: sxye_l02 written ok
 ---- update-rst ----
           iom_nf90_rp0123d, file: ./GYRE_00000060_restart_ice.nc, var: snwice_mass written ok
           iom_nf90_rp0123d, file: ./GYRE_00000060_restart_ice.nc, var: snwice_mass_b written ok

 ice_rst_write : write ice restart file  kt =          60
 ~~~~~~~~~~~~~~
           iom_nf90_rp0123d, file: ./GYRE_00000060_restart_ice.nc, var: nn_fsbc written ok
           iom_nf90_rp0123d, file: ./GYRE_00000060_restart_ice.nc, var: kt_ice written ok
           iom_nf90_rp0123d, file: ./GYRE_00000060_restart_ice.nc, var: v_i written ok
           iom_nf90_rp0123d, file: ./GYRE_00000060_restart_ice.nc, var: v_s written ok
           iom_nf90_rp0123d, file: ./GYRE_00000060_restart_ice.nc, var: sv_i written ok
           iom_nf90_rp0123d, file: ./GYRE_00000060_restart_ice.nc, var: a_i written ok
           iom_nf90_rp0123d, file: ./GYRE_00000060_restart_ice.nc, var: t_su written ok
           iom_nf90_rp0123d, file: ./GYRE_00000060_restart_ice.nc, var: u_ice written ok
           iom_nf90_rp0123d, file: ./GYRE_00000060_restart_ice.nc, var: v_ice written ok
           iom_nf90_rp0123d, file: ./GYRE_00000060_restart_ice.nc, var: oa_i written ok
           iom_nf90_rp0123d, file: ./GYRE_00000060_restart_ice.nc, var: a_ip written ok
           iom_nf90_rp0123d, file: ./GYRE_00000060_restart_ice.nc, var: v_ip written ok
           iom_nf90_rp0123d, file: ./GYRE_00000060_restart_ice.nc, var: e_s_l01 written ok
           iom_nf90_rp0123d, file: ./GYRE_00000060_restart_ice.nc, var: e_i_l01 written ok
           iom_nf90_rp0123d, file: ./GYRE_00000060_restart_ice.nc, var: e_i_l02 written ok
                     iom_close ~~~ close file: ./GYRE_00000060_restart_ice.nc ok

 sbc : ocean surface forcing fields written in ocean restart file at it=           60  date=        10102
 ~~~~
           iom_nf90_rp0123d, file: ./GYRE_00000060_restart.nc, var: utau_b write dimension variables done
           iom_nf90_rp0123d, file: ./GYRE_00000060_restart.nc, var: utau_b written ok
           iom_nf90_rp0123d, file: ./GYRE_00000060_restart.nc, var: vtau_b written ok
           iom_nf90_rp0123d, file: ./GYRE_00000060_restart.nc, var: qns_b written ok
           iom_nf90_rp0123d, file: ./GYRE_00000060_restart.nc, var: emp_b written ok
           iom_nf90_rp0123d, file: ./GYRE_00000060_restart.nc, var: sfx_b written ok
 ---- tke_rst ----
           iom_nf90_rp0123d, file: ./GYRE_00000060_restart.nc, var: en written ok
           iom_nf90_rp0123d, file: ./GYRE_00000060_restart.nc, var: avt_k written ok
           iom_nf90_rp0123d, file: ./GYRE_00000060_restart.nc, var: avm_k written ok
           iom_nf90_rp0123d, file: ./GYRE_00000060_restart.nc, var: dissl written ok
 ---- ts_rst ----
           iom_nf90_rp0123d, file: ./GYRE_00000060_restart.nc, var: ub2_b written ok
           iom_nf90_rp0123d, file: ./GYRE_00000060_restart.nc, var: vb2_b written ok
           iom_nf90_rp0123d, file: ./GYRE_00000060_restart.nc, var: un_bf written ok
           iom_nf90_rp0123d, file: ./GYRE_00000060_restart.nc, var: vn_bf written ok
           iom_nf90_rp0123d, file: ./GYRE_00000060_restart.nc, var: sbc_hc_b written ok
           iom_nf90_rp0123d, file: ./GYRE_00000060_restart.nc, var: sbc_sc_b written ok
           iom_nf90_rp0123d, file: ./GYRE_00000060_restart.nc, var: qsr_hc_b written ok
           iom_nf90_rp0123d, file: ./GYRE_00000060_restart.nc, var: fraqsr_1lev written ok
           iom_nf90_rp0123d, file: ./GYRE_00000060_restart.nc, var: rdt written ok
           iom_nf90_rp0123d, file: ./GYRE_00000060_restart.nc, var: ub written ok
           iom_nf90_rp0123d, file: ./GYRE_00000060_restart.nc, var: vb written ok
           iom_nf90_rp0123d, file: ./GYRE_00000060_restart.nc, var: tb written ok
           iom_nf90_rp0123d, file: ./GYRE_00000060_restart.nc, var: sb written ok
           iom_nf90_rp0123d, file: ./GYRE_00000060_restart.nc, var: sshb written ok
           iom_nf90_rp0123d, file: ./GYRE_00000060_restart.nc, var: un written ok
           iom_nf90_rp0123d, file: ./GYRE_00000060_restart.nc, var: vn written ok
           iom_nf90_rp0123d, file: ./GYRE_00000060_restart.nc, var: tn written ok
           iom_nf90_rp0123d, file: ./GYRE_00000060_restart.nc, var: sn written ok
           iom_nf90_rp0123d, file: ./GYRE_00000060_restart.nc, var: sshn written ok
           iom_nf90_rp0123d, file: ./GYRE_00000060_restart.nc, var: rhop written ok
                     iom_close ~~~ close file: ./GYRE_00000060_restart.nc ok

AAAAAAAA

